[General]
network = final
sim-time-limit = 1000s
seed-set = 29
output-scalar-file = results.sca
